cases/ieee300/IEEE300.raw
0  100.000
 IEEE 300-bus test system
 generated from MATPOWER data by tools/make_cases.py
      1, 1,    90.000,    49.000,     0.000,     0.000,   1, 1.02840,   5.9500,'BUS-1       ', 115.0000,   1
      2, 1,    56.000,    15.000,     0.000,     0.000,   1, 1.03540,   7.7400,'BUS-2       ', 115.0000,   1
      3, 1,    20.000,     0.000,     0.000,     0.000,   1, 0.99710,   6.6400,'BUS-3       ', 230.0000,   1
      4, 1,     0.000,     0.000,     0.000,     0.000,   1, 1.03080,   4.7100,'BUS-4       ', 345.0000,   1
      5, 1,   353.000,   130.000,     0.000,     0.000,   1, 1.01910,   4.6800,'BUS-5       ', 115.0000,   1
      6, 1,   120.000,    41.000,     0.000,     0.000,   1, 1.03120,   6.9900,'BUS-6       ', 115.0000,   1
      7, 1,     0.000,     0.000,     0.000,     0.000,   1, 0.99340,   6.1900,'BUS-7       ', 230.0000,   1
      8, 2,    63.000,    14.000,     0.000,     0.000,   1, 1.01530,   2.4000,'BUS-8       ', 115.0000,   1
      9, 1,    96.000,    43.000,     0.000,     0.000,   1, 1.00340,   2.8500,'BUS-9       ', 115.0000,   1
     10, 2,   153.000,    33.000,     0.000,     0.000,   1, 1.02050,   1.3500,'BUS-10      ', 230.0000,   1
     11, 1,    83.000,    21.000,     0.000,     0.000,   1, 1.00570,   2.4600,'BUS-11      ', 115.0000,   1
     12, 1,     0.000,     0.000,     0.000,     0.000,   1, 0.99740,   5.2100,'BUS-12      ', 230.0000,   1
     13, 1,    58.000,    10.000,     0.000,     0.000,   1, 0.99770,  -0.5500,'BUS-13      ', 115.0000,   1
     14, 1,   160.000,    60.000,     0.000,     0.000,   1, 0.99910,  -4.8100,'BUS-14      ', 115.0000,   1
     15, 1,   126.700,    23.000,     0.000,     0.000,   1, 1.03430,  -8.5900,'BUS-15      ', 115.0000,   1
     16, 1,     0.000,     0.000,     0.000,     0.000,   1, 1.03150,  -2.6500,'BUS-16      ', 345.0000,   1
     17, 1,   561.000,   220.000,     0.000,     0.000,   1, 1.06490, -13.1000,'BUS-17      ', 115.0000,   1
     19, 1,     0.000,     0.000,     0.000,     0.000,   1, 0.98200,   1.0800,'BUS-19      ', 230.0000,   1
     20, 2,   605.000,   120.000,     0.000,     0.000,   1, 1.00100,  -2.4600,'BUS-20      ', 115.0000,   1
     21, 1,    77.000,     1.000,     0.000,     0.000,   1, 0.97520,   1.6200,'BUS-21      ', 230.0000,   1
     22, 1,    81.000,    23.000,     0.000,     0.000,   1, 0.99630,  -1.9700,'BUS-22      ', 115.0000,   1
     23, 1,    21.000,     7.000,     0.000,     0.000,   1, 1.05010,   3.9400,'BUS-23      ', 115.0000,   1
     24, 1,     0.000,     0.000,     0.000,     0.000,   1, 1.00570,   6.0200,'BUS-24      ', 230.0000,   1
     25, 1,    45.000,    12.000,     0.000,     0.000,   1, 1.02340,   1.4400,'BUS-25      ', 115.0000,   1
     26, 1,    28.000,     9.000,     0.000,     0.000,   1, 0.99860,  -1.7300,'BUS-26      ', 115.0000,   1
     27, 1,    69.000,    13.000,     0.000,     0.000,   1, 0.97500,  -4.9000,'BUS-27      ', 115.0000,   1
     33, 1,    55.000,     6.000,     0.000,     0.000,   1, 1.02440, -12.0200,'BUS-33      ', 115.0000,   1
     34, 1,     0.000,     0.000,     0.000,     0.000,   1, 1.04140,  -7.9400,'BUS-34      ', 345.0000,   1
     35, 1,     0.000,     0.000,     0.000,     0.000,   1, 0.97570, -25.7200,'BUS-35      ', 115.0000,   1
     36, 1,     0.000,     0.000,     0.000,     0.000,   1, 1.00110, -22.5900,'BUS-36      ', 230.0000,   1
     37, 1,    85.000,    32.000,     0.000,     0.000,   1, 1.02010, -11.2300,'BUS-37      ', 115.0000,   1
     38, 1,   155.000,    18.000,     0.000,     0.000,   1, 1.02020, -12.5600,'BUS-38      ', 115.0000,   1
     39, 1,     0.000,     0.000,     0.000,     0.000,   1, 1.05350,  -5.8100,'BUS-39      ', 345.0000,   1
     40, 1,    46.000,   -21.000,     0.000,     0.000,   1, 1.02160, -12.7800,'BUS-40      ', 115.0000,   1
     41, 1,    86.000,     0.000,     0.000,     0.000,   1, 1.02920, -10.4500,'BUS-41      ', 115.0000,   1
     42, 1,     0.000,     0.000,     0.000,     0.000,   1, 1.04480,  -7.4400,'BUS-42      ', 345.0000,   1
     43, 1,    39.000,     9.000,     0.000,     0.000,   1, 1.00060, -16.7900,'BUS-43      ', 115.0000,   1
     44, 1,   195.000,    29.000,     0.000,     0.000,   1, 1.00860, -17.4700,'BUS-44      ', 115.0000,   1
     45, 1,     0.000,     0.000,     0.000,     0.000,   1, 1.02150, -14.7400,'BUS-45      ', 230.0000,   1
     46, 1,     0.000,     0.000,     0.000,     0.000,   1, 1.03440, -11.7500,'BUS-46      ', 345.0000,   1
     47, 1,    58.000,    11.800,     0.000,     0.000,   1, 0.97770, -23.1700,'BUS-47      ', 115.0000,   1
     48, 1,    41.000,    19.000,     0.000,     0.000,   1, 1.00190, -16.0900,'BUS-48      ', 115.0000,   1
     49, 1,    92.000,    26.000,     0.000,     0.000,   1, 1.04750,  -2.9500,'BUS-49      ', 115.0000,   1
     51, 1,    -5.000,     5.000,     0.000,     0.000,   1, 1.02530,  -8.1500,'BUS-51      ', 115.0000,   1
     52, 1,    61.000,    28.000,     0.000,     0.000,   1, 0.99790, -11.8600,'BUS-52      ', 115.0000,   1
     53, 1,    69.000,     3.000,     0.000,     0.000,   1, 0.99590, -17.6000,'BUS-53      ', 115.0000,   1
     54, 1,    10.000,     1.000,     0.000,     0.000,   1, 1.00500, -16.2500,'BUS-54      ', 115.0000,   1
     55, 1,    22.000,    10.000,     0.000,     0.000,   1, 1.01500, -12.2100,'BUS-55      ', 115.0000,   1
     57, 1,    98.000,    20.000,     0.000,     0.000,   1, 1.03350,  -8.0000,'BUS-57      ', 115.0000,   1
     58, 1,    14.000,     1.000,     0.000,     0.000,   1, 0.99180,  -5.9900,'BUS-58      ', 115.0000,   1
     59, 1,   218.000,   106.000,     0.000,     0.000,   1, 0.97890,  -5.2900,'BUS-59      ', 115.0000,   1
     60, 1,     0.000,     0.000,     0.000,     0.000,   1, 1.02460,  -9.5600,'BUS-60      ', 230.0000,   1
     61, 1,   227.000,   110.000,     0.000,     0.000,   1, 0.99060,  -3.4700,'BUS-61      ', 115.0000,   1
     62, 1,     0.000,     0.000,     0.000,     0.000,   1, 1.01600,  -1.1000,'BUS-62      ', 230.0000,   1
     63, 2,    70.000,    30.000,     0.000,     0.000,   1, 0.95830, -17.6200,'BUS-63      ', 115.0000,   1
     64, 1,     0.000,     0.000,     0.000,     0.000,   1, 0.94800, -12.9700,'BUS-64      ', 230.0000,   1
     69, 1,     0.000,     0.000,     0.000,     0.000,   1, 0.96300, -25.6600,'BUS-69      ', 115.0000,   1
     70, 1,    56.000,    20.000,     0.000,     0.000,   1, 0.95130, -35.1600,'BUS-70      ', 115.0000,   1
     71, 1,   116.000,    38.000,     0.000,     0.000,   1, 0.97930, -29.8800,'BUS-71      ', 115.0000,   1
     72, 1,    57.000,    19.000,     0.000,     0.000,   1, 0.96960, -27.4800,'BUS-72      ', 115.0000,   1
     73, 1,   224.000,    71.000,     0.000,     0.000,   1, 0.97750, -25.7700,'BUS-73      ', 115.0000,   1
     74, 1,     0.000,     0.000,     0.000,     0.000,   1, 0.99640, -22.0000,'BUS-74      ', 230.0000,   1
     76, 2,   208.000,   107.000,     0.000,     0.000,   1, 0.96320, -26.5400,'BUS-76      ', 115.0000,   1
     77, 1,    74.000,    28.000,     0.000,     0.000,   1, 0.98370, -24.9400,'BUS-77      ', 115.0000,   1
     78, 1,     0.000,     0.000,     0.000,     0.000,   1, 0.99000, -24.0500,'BUS-78      ', 115.0000,   1
     79, 1,    48.000,    14.000,     0.000,     0.000,   1, 0.98200, -24.9700,'BUS-79      ', 115.0000,   1
     80, 1,    28.000,     7.000,     0.000,     0.000,   1, 0.98720, -24.9700,'BUS-80      ', 115.0000,   1
     81, 1,     0.000,     0.000,     0.000,     0.000,   1, 1.03400, -18.8900,'BUS-81      ', 345.0000,   1
     84, 2,    37.000,    13.000,     0.000,     0.000,   1, 1.02500, -17.1600,'BUS-84      ', 115.0000,   1
     85, 1,     0.000,     0.000,     0.000,     0.000,   1, 0.98720, -17.6800,'BUS-85      ', 230.0000,   1
     86, 1,     0.000,     0.000,     0.000,     0.000,   1, 0.99090, -14.1900,'BUS-86      ', 230.0000,   1
     87, 1,     0.000,     0.000,     0.000,     0.000,   1, 0.99210,  -7.7700,'BUS-87      ', 230.0000,   1
     88, 1,     0.000,     0.000,     0.000,     0.000,   1, 1.01510, -20.9600,'BUS-88      ', 230.0000,   1
     89, 1,    44.200,     0.000,     0.000,     0.000,   1, 1.03170, -11.1300,'BUS-89      ', 115.0000,   1
     90, 1,    66.000,     0.000,     0.000,     0.000,   1, 1.02720, -11.2300,'BUS-90      ', 115.0000,   1
     91, 2,    17.400,     0.000,     0.000,     0.000,   1, 1.05200,  -9.4000,'BUS-91      ', 115.0000,   1
     92, 2,    15.800,     0.000,     0.000,     0.000,   1, 1.05200,  -6.2000,'BUS-92      ', 115.0000,   1
     94, 1,    60.300,     0.000,     0.000,     0.000,   1, 0.99300,  -9.4200,'BUS-94      ', 115.0000,   1
     97, 1,    39.900,     0.000,     0.000,     0.000,   1, 1.01830, -13.2400,'BUS-97      ', 115.0000,   1
     98, 2,    66.700,     0.000,     0.000,     0.000,   1, 1.00000, -14.6000,'BUS-98      ', 115.0000,   1
     99, 1,    83.500,     0.000,     0.000,     0.000,   1, 0.98940, -20.2700,'BUS-99      ', 115.0000,   1
    100, 1,     0.000,     0.000,     0.000,     0.000,   1, 1.00600, -14.4500,'BUS-100     ', 115.0000,   1
    102, 1,    77.800,     0.000,     0.000,     0.000,   1, 1.00080, -15.2300,'BUS-102     ', 115.0000,   1
    103, 1,    32.000,     0.000,     0.000,     0.000,   1, 1.02880, -12.0600,'BUS-103     ', 115.0000,   1
    104, 1,     8.600,     0.000,     0.000,     0.000,   1, 0.99580, -17.3300,'BUS-104     ', 115.0000,   1
    105, 1,    49.600,     0.000,     0.000,     0.000,   1, 1.02230, -12.9400,'BUS-105     ', 115.0000,   1
    107, 1,     4.600,     0.000,     0.000,     0.000,   1, 1.00950, -16.0300,'BUS-107     ', 115.0000,   1
    108, 2,   112.100,     0.000,     0.000,     0.000,   1, 0.99000, -20.2600,'BUS-108     ', 115.0000,   1
    109, 1,    30.700,     0.000,     0.000,     0.000,   1, 0.97490, -26.0600,'BUS-109     ', 115.0000,   1
    110, 1,    63.000,     0.000,     0.000,     0.000,   1, 0.97300, -24.7200,'BUS-110     ', 115.0000,   1
    112, 1,    19.600,     0.000,     0.000,     0.000,   1, 0.97250, -28.6900,'BUS-112     ', 115.0000,   1
    113, 1,    26.200,     0.000,     0.000,     0.000,   1, 0.97000, -25.3800,'BUS-113     ', 115.0000,   1
    114, 1,    18.200,     0.000,     0.000,     0.000,   1, 0.97470, -28.5900,'BUS-114     ', 115.0000,   1
    115, 1,     0.000,     0.000,     0.000,     0.000,   1, 0.96030, -13.5700,'BUS-115     ', 115.0000,   2
    116, 1,     0.000,     0.000,     0.000,     0.000,   1, 1.02490, -12.6900,'BUS-116     ', 115.0000,   2
    117, 1,     0.000,     0.000,     0.000,   325.000,   1, 0.93480,  -4.7200,'BUS-117     ', 115.0000,   2
    118, 1,    14.100,   650.000,     0.000,     0.000,   1, 0.92980,  -4.1200,'BUS-118     ', 115.0000,   2
    119, 2,     0.000,     0.000,     0.000,     0.000,   1, 1.04350,   5.1700,'BUS-119     ', 115.0000,   2
    120, 1,   777.000,   215.000,     0.000,    55.000,   1, 0.95840,  -8.7700,'BUS-120     ', 115.0000,   2
    121, 1,   535.000,    55.000,     0.000,     0.000,   1, 0.98710, -12.6400,'BUS-121     ', 115.0000,   2
    122, 1,   229.100,    11.800,     0.000,     0.000,   1, 0.97280, -14.3600,'BUS-122     ', 115.0000,   2
    123, 1,    78.000,     1.400,     0.000,     0.000,   1, 1.00060, -17.6400,'BUS-123     ', 115.0000,   2
    124, 2,   276.400,    59.300,     0.000,     0.000,   1, 1.02330, -13.4900,'BUS-124     ', 115.0000,   2
    125, 2,   514.800,    82.700,     0.000,     0.000,   1, 1.01030, -18.4300,'BUS-125     ', 115.0000,   2
    126, 1,    57.900,     5.100,     0.000,     0.000,   1, 0.99780, -12.8600,'BUS-126     ', 115.0000,   2
    127, 1,   380.800,    37.000,     0.000,     0.000,   1, 1.00010, -10.5200,'BUS-127     ', 230.0000,   2
    128, 1,     0.000,     0.000,     0.000,     0.000,   1, 1.00240,  -4.7800,'BUS-128     ', 230.0000,   2
    129, 1,     0.000,     0.000,     0.000,     0.000,   1, 1.00280,  -4.4000,'BUS-129     ', 230.0000,   2
    130, 1,     0.000,     0.000,     0.000,     0.000,   1, 1.01910,   5.5600,'BUS-130     ', 230.0000,   2
    131, 1,     0.000,     0.000,     0.000,     0.000,   1, 0.98610,   6.0600,'BUS-131     ', 230.0000,   2
    132, 1,     0.000,     0.000,     0.000,     0.000,   1, 1.00450,   3.0400,'BUS-132     ', 230.0000,   2
    133, 1,     0.000,     0.000,     0.000,     0.000,   1, 1.00200,  -5.4600,'BUS-133     ', 230.0000,   2
    134, 1,     0.000,     0.000,     0.000,     0.000,   1, 1.02200,  -8.0400,'BUS-134     ', 230.0000,   2
    135, 1,   169.200,    41.600,     0.000,     0.000,   1, 1.01930,  -6.7600,'BUS-135     ', 230.0000,   2
    136, 1,    55.200,    18.200,     0.000,     0.000,   1, 1.04760,   1.5400,'BUS-136     ', 230.0000,   2
    137, 1,   273.600,    99.800,     0.000,     0.000,   1, 1.04710,  -1.4500,'BUS-137     ', 230.0000,   2
    138, 2,  1019.200,   135.200,     0.000,     0.000,   1, 1.05500,  -6.3500,'BUS-138     ', 230.0000,   2
    139, 1,   595.000,    83.300,     0.000,     0.000,   1, 1.01170,  -3.5700,'BUS-139     ', 115.0000,   2
    140, 1,   387.700,   114.700,     0.000,     0.000,   1, 1.04300,  -3.4400,'BUS-140     ', 230.0000,   2
    141, 2,   145.000,    58.000,     0.000,     0.000,   1, 1.05100,   0.0500,'BUS-141     ', 230.0000,   2
    142, 1,    56.500,    24.500,     0.000,     0.000,   1, 1.01550,  -2.7700,'BUS-142     ', 230.0000,   2
    143, 2,    89.500,    35.500,     0.000,     0.000,   1, 1.04350,   4.0300,'BUS-143     ', 230.0000,   2
    144, 1,     0.000,     0.000,     0.000,     0.000,   1, 1.01600,  -0.7000,'BUS-144     ', 230.0000,   2
    145, 1,    24.000,    14.000,     0.000,     0.000,   1, 1.00810,  -0.1600,'BUS-145     ', 230.0000,   2
    146, 2,     0.000,     0.000,     0.000,     0.000,   1, 1.05280,   4.3200,'BUS-146     ', 230.0000,   2
    147, 2,     0.000,     0.000,     0.000,     0.000,   1, 1.05280,   8.3600,'BUS-147     ', 230.0000,   2
    148, 1,    63.000,    25.000,     0.000,     0.000,   1, 1.05770,   0.2800,'BUS-148     ', 230.0000,   2
    149, 2,     0.000,     0.000,     0.000,     0.000,   1, 1.07350,   5.2300,'BUS-149     ', 230.0000,   2
    150, 1,     0.000,     0.000,     0.000,     0.000,   1, 0.98690,   6.3400,'BUS-150     ', 230.0000,   2
    151, 1,     0.000,     0.000,     0.000,     0.000,   1, 1.00480,   4.1300,'BUS-151     ', 230.0000,   2
    152, 2,    17.000,     9.000,     0.000,     0.000,   1, 1.05350,   9.2400,'BUS-152     ', 230.0000,   2
    153, 2,     0.000,     0.000,     0.000,     0.000,   1, 1.04350,  10.4600,'BUS-153     ', 230.0000,   2
    154, 1,    70.000,     5.000,     0.000,    34.500,   1, 0.96630,  -1.8000,'BUS-154     ', 115.0000,   2
    155, 1,   200.000,    50.000,     0.000,     0.000,   1, 1.01770,   6.7500,'BUS-155     ', 230.0000,   2
    156, 2,    75.000,    50.000,     0.000,     0.000,   1, 0.96300,   5.1500,'BUS-156     ', 115.0000,   2
    157, 1,   123.500,   -24.300,     0.000,     0.000,   1, 0.98450, -11.9300,'BUS-157     ', 230.0000,   2
    158, 1,     0.000,     0.000,     0.000,     0.000,   1, 0.99870, -11.4000,'BUS-158     ', 230.0000,   2
    159, 1,    33.000,    16.500,     0.000,     0.000,   1, 0.98670,  -9.8200,'BUS-159     ', 230.0000,   2
    160, 1,     0.000,     0.000,     0.000,     0.000,   1, 0.99980, -12.5500,'BUS-160     ', 230.0000,   2
    161, 1,    35.000,    15.000,     0.000,     0.000,   1, 1.03600,   8.8500,'BUS-161     ', 230.0000,   2
    162, 1,    85.000,    24.000,     0.000,     0.000,   1, 0.99180,  18.5000,'BUS-162     ', 230.0000,   2
    163, 1,     0.000,     0.400,     0.000,     0.000,   1, 1.04100,   2.9100,'BUS-163     ', 230.0000,   2
    164, 1,     0.000,     0.000,     0.000,  -212.000,   1, 0.98390,   9.6600,'BUS-164     ', 230.0000,   2
    165, 1,     0.000,     0.000,     0.000,     0.000,   1, 1.00020,  26.3100,'BUS-165     ', 230.0000,   2
    166, 1,     0.000,     0.000,     0.000,  -103.000,   1, 0.99730,  30.2200,'BUS-166     ', 230.0000,   2
    167, 1,   299.900,    95.700,     0.000,     0.000,   1, 0.97150,  -6.9100,'BUS-167     ', 230.0000,   2
    168, 1,     0.000,     0.000,     0.000,     0.000,   1, 1.00240,  -4.8000,'BUS-168     ', 230.0000,   2
    169, 1,     0.000,     0.000,     0.000,     0.000,   1, 0.98790,  -6.6800,'BUS-169     ', 230.0000,   2
    170, 2,   481.800,   205.000,     0.000,     0.000,   1, 0.92900,   0.0900,'BUS-170     ', 115.0000,   2
    171, 2,   763.600,   291.100,     0.000,     0.000,   1, 0.98290,  -9.9400,'BUS-171     ', 115.0000,   2
    172, 1,    26.500,     0.000,     0.000,     0.000,   1, 1.02440,  -6.2200,'BUS-172     ', 115.0000,   2
    173, 1,   163.500,    43.000,     0.000,    53.000,   1, 0.98370, -12.7500,'BUS-173     ', 115.0000,   2
    174, 1,     0.000,     0.000,     0.000,     0.000,   1, 1.06220,  -2.6900,'BUS-174     ', 115.0000,   2
    175, 1,   176.000,    83.000,     0.000,     0.000,   1, 0.97300,  -7.2100,'BUS-175     ', 115.0000,   2
    176, 2,     5.000,     4.000,     0.000,     0.000,   1, 1.05220,   4.6700,'BUS-176     ', 115.0000,   2
    177, 2,    28.000,    12.000,     0.000,     0.000,   1, 1.00770,   0.6200,'BUS-177     ', 115.0000,   2
    178, 1,   427.400,   173.600,     0.000,     0.000,   1, 0.93970,  -6.5600,'BUS-178     ', 115.0000,   2
    179, 1,    74.000,    29.000,     0.000,    45.000,   1, 0.96990,  -9.3700,'BUS-179     ', 115.0000,   2
    180, 1,    69.500,    49.300,     0.000,     0.000,   1, 0.97930,  -3.0900,'BUS-180     ', 115.0000,   2
    181, 1,    73.400,     0.000,     0.000,     0.000,   1, 1.05180,  -1.3300,'BUS-181     ', 230.0000,   2
    182, 1,   240.700,    89.000,     0.000,     0.000,   1, 1.04470,  -4.1900,'BUS-182     ', 230.0000,   2
    183, 1,    40.000,     4.000,     0.000,     0.000,   1, 0.97170,   7.1200,'BUS-183     ', 115.0000,   2
    184, 1,   136.800,    16.600,     0.000,     0.000,   1, 1.03860,  -6.8500,'BUS-184     ', 230.0000,   2
    185, 2,     0.000,     0.000,     0.000,     0.000,   1, 1.05220,  -4.3300,'BUS-185     ', 230.0000,   2
    186, 2,    59.800,    24.300,     0.000,     0.000,   1, 1.06500,   2.1700,'BUS-186     ', 230.0000,   2
    187, 2,    59.800,    24.300,     0.000,     0.000,   1, 1.06500,   1.4000,'BUS-187     ', 230.0000,   2
    188, 1,   182.600,    43.600,     0.000,     0.000,   1, 1.05330,  -0.7200,'BUS-188     ', 230.0000,   2
    189, 1,     7.000,     2.000,     0.000,     0.000,   1, 0.99750, -25.8400,'BUS-189     ',  66.0000,   3
    190, 2,     0.000,     0.000,     0.000,  -150.000,   1, 1.05510, -20.6200,'BUS-190     ', 345.0000,   3
    191, 2,   489.000,    53.000,     0.000,     0.000,   1, 1.04350,  12.2500,'BUS-191     ', 230.0000,   3
    192, 1,   800.000,    72.000,     0.000,     0.000,   1, 0.93740, -11.1800,'BUS-192     ', 230.0000,   3
    193, 1,     0.000,     0.000,     0.000,     0.000,   1, 0.98970, -26.0900,'BUS-193     ',  66.0000,   3
    194, 1,     0.000,     0.000,     0.000,     0.000,   1, 1.04890, -19.2100,'BUS-194     ', 345.0000,   3
    195, 1,     0.000,     0.000,     0.000,     0.000,   1, 1.03570, -20.7900,'BUS-195     ', 345.0000,   3
    196, 1,    10.000,     3.000,     0.000,     0.000,   1, 0.96950, -25.3200,'BUS-196     ', 115.0000,   3
    197, 1,    43.000,    14.000,     0.000,     0.000,   1, 0.99070, -23.7200,'BUS-197     ', 115.0000,   3
    198, 2,    64.000,    21.000,     0.000,     0.000,   1, 1.01500, -20.5800,'BUS-198     ', 115.0000,   3
    199, 1,    35.000,    12.000,     0.000,     0.000,   1, 0.95280, -26.0500,'BUS-199     ', 115.0000,   3
    200, 1,    27.000,    12.000,     0.000,     0.000,   1, 0.95500, -25.9300,'BUS-200     ', 115.0000,   3
    201, 1,    41.000,    14.000,     0.000,     0.000,   1, 0.96920, -27.4900,'BUS-201     ',  66.0000,   1
    202, 1,    38.000,    13.000,     0.000,     0.000,   1, 0.99080, -25.3300,'BUS-202     ',  66.0000,   3
    203, 1,    42.000,    14.000,     0.000,     0.000,   1, 1.00330, -22.3500,'BUS-203     ', 115.0000,   3
    204, 1,    72.000,    24.000,     0.000,     0.000,   1, 0.97180, -25.7000,'BUS-204     ',  66.0000,   3
    205, 1,     0.000,    -5.000,     0.000,     0.000,   1, 0.98380, -26.0700,'BUS-205     ',  66.0000,   3
    206, 1,    12.000,     2.000,     0.000,     0.000,   1, 0.99920, -27.4100,'BUS-206     ',  66.0000,   3
    207, 1,   -21.000,   -14.200,     0.000,     0.000,   1, 1.01370, -27.4400,'BUS-207     ',  66.0000,   1
    208, 1,     7.000,     2.000,     0.000,     0.000,   1, 0.99290, -26.2800,'BUS-208     ',  66.0000,   3
    209, 1,    38.000,    13.000,     0.000,     0.000,   1, 0.99990, -25.6600,'BUS-209     ',  66.0000,   3
    210, 1,     0.000,     0.000,     0.000,     0.000,   1, 0.97880, -24.2200,'BUS-210     ', 115.0000,   3
    211, 1,    96.000,     7.000,     0.000,     0.000,   1, 1.00170, -23.3100,'BUS-211     ', 115.0000,   3
    212, 1,     0.000,     0.000,     0.000,     0.000,   1, 1.01320, -22.5100,'BUS-212     ', 138.0000,   3
    213, 2,     0.000,     0.000,     0.000,     0.000,   1, 1.01000, -11.6700,'BUS-213     ',  16.5000,   3
    214, 1,    22.000,    16.000,     0.000,     0.000,   1, 0.99190, -17.5300,'BUS-214     ', 138.0000,   3
    215, 1,    47.000,    26.000,     0.000,     0.000,   1, 0.98660, -20.2300,'BUS-215     ', 138.0000,   3
    216, 1,   176.000,   105.000,     0.000,     0.000,   1, 0.97510, -22.5300,'BUS-216     ', 138.0000,   3
    217, 1,   100.000,    75.000,     0.000,     0.000,   1, 1.02150, -22.2000,'BUS-217     ', 138.0000,   3
    218, 1,   131.000,    96.000,     0.000,     0.000,   1, 1.00750, -22.6300,'BUS-218     ', 138.0000,   3
    219, 1,     0.000,     0.000,     0.000,     0.000,   1, 1.05540, -21.1500,'BUS-219     ', 345.0000,   3
    220, 2,   285.000,   100.000,     0.000,     0.000,   1, 1.00800, -21.7300,'BUS-220     ', 138.0000,   3
    221, 2,   171.000,    70.000,     0.000,     0.000,   1, 1.00000, -22.4900,'BUS-221     ', 138.0000,   3
...
0 / END OF BUS DATA, BEGIN GENERATOR DATA
      8,'1 ',     0.000,     0.000,    10.000,   -10.000, 1.01530,     0,   100.000,   0.00000,   1.00000,   0.00000,   0.00000,   1.00000,1,  100.0,   100.000,     0.000
     10,'1 ',     0.000,     0.000,    20.000,   -20.000, 1.02050,     0,   100.000,   0.00000,   1.00000,   0.00000,   0.00000,   1.00000,1,  100.0,   100.000,     0.000
     20,'1 ',     0.000,     0.000,    20.000,   -20.000, 1.00100,     0,   100.000,   0.00000,   1.00000,   0.00000,   0.00000,   1.00000,1,  100.0,   100.000,     0.000
     63,'1 ',     0.000,     0.000,    25.000,   -25.000, 0.95830,     0,   100.000,   0.00000,   1.00000,   0.00000,   0.00000,   1.00000,1,  100.0,   100.000,     0.000
     76,'1 ',     0.000,     0.000,    35.000,    12.000, 0.96320,     0,   100.000,   0.00000,   1.00000,   0.00000,   0.00000,   1.00000,1,  100.0,   100.000,     0.000
     84,'1 ',   375.000,     0.000,   240.000,  -240.000, 1.02500,     0,   100.000,   0.00000,   1.00000,   0.00000,   0.00000,   1.00000,1,  100.0,   475.000,     0.000
     91,'1 ',   155.000,     0.000,    96.000,   -11.000, 1.05200,     0,   100.000,   0.00000,   1.00000,   0.00000,   0.00000,   1.00000,1,  100.0,   255.000,     0.000
     92,'1 ',   290.000,     0.000,   153.000,  -153.000, 1.05200,     0,   100.000,   0.00000,   1.00000,   0.00000,   0.00000,   1.00000,1,  100.0,   390.000,     0.000
     98,'1 ',    68.000,     0.000,    56.000,   -30.000, 1.00000,     0,   100.000,   0.00000,   1.00000,   0.00000,   0.00000,   1.00000,1,  100.0,   168.000,     0.000
    108,'1 ',   117.000,     0.000,    77.000,   -24.000, 0.99000,     0,   100.000,   0.00000,   1.00000,   0.00000,   0.00000,   1.00000,1,  100.0,   217.000,     0.000
    119,'1 ',  1930.000,     0.000,  1500.000,  -500.000, 1.04350,     0,   100.000,   0.00000,   1.00000,   0.00000,   0.00000,   1.00000,1,  100.0,  2030.000,     0.000
    124,'1 ',   240.000,     0.000,   120.000,   -60.000, 1.02330,     0,   100.000,   0.00000,   1.00000,   0.00000,   0.00000,   1.00000,1,  100.0,   340.000,     0.000
    125,'1 ',     0.000,     0.000,   200.000,   -25.000, 1.01030,     0,   100.000,   0.00000,   1.00000,   0.00000,   0.00000,   1.00000,1,  100.0,   100.000,     0.000
    138,'1 ',     0.000,     0.000,   350.000,  -125.000, 1.05500,     0,   100.000,   0.00000,   1.00000,   0.00000,   0.00000,   1.00000,1,  100.0,   100.000,     0.000
    141,'1 ',   281.000,     0.000,    75.000,   -50.000, 1.05100,     0,   100.000,   0.00000,   1.00000,   0.00000,   0.00000,   1.00000,1,  100.0,   381.000,     0.000
    143,'1 ',   696.000,     0.000,   300.000,  -100.000, 1.04350,     0,   100.000,   0.00000,   1.00000,   0.00000,   0.00000,   1.00000,1,  100.0,   796.000,     0.000
    146,'1 ',    84.000,     0.000,    35.000,   -15.000, 1.05280,     0,   100.000,   0.00000,   1.00000,   0.00000,   0.00000,   1.00000,1,  100.0,   184.000,     0.000
    147,'1 ',   217.000,     0.000,   100.000,   -50.000, 1.05280,     0,   100.000,   0.00000,   1.00000,   0.00000,   0.00000,   1.00000,1,  100.0,   317.000,     0.000
    149,'1 ',   103.000,     0.000,    50.000,   -25.000, 1.07350,     0,   100.000,   0.00000,   1.00000,   0.00000,   0.00000,   1.00000,1,  100.0,   203.000,     0.000
    152,'1 ',   372.000,     0.000,   175.000,   -50.000, 1.05350,     0,   100.000,   0.00000,   1.00000,   0.00000,   0.00000,   1.00000,1,  100.0,   472.000,     0.000
    153,'1 ',   216.000,     0.000,    90.000,   -50.000, 1.04350,     0,   100.000,   0.00000,   1.00000,   0.00000,   0.00000,   1.00000,1,  100.0,   316.000,     0.000
    156,'1 ',     0.000,     0.000,    15.000,   -10.000, 0.96300,     0,   100.000,   0.00000,   1.00000,   0.00000,   0.00000,   1.00000,1,  100.0,   100.000,     0.000
    170,'1 ',   205.000,     0.000,    90.000,   -40.000, 0.92900,     0,   100.000,   0.00000,   1.00000,   0.00000,   0.00000,   1.00000,1,  100.0,   305.000,     0.000
    171,'1 ',     0.000,     0.000,   150.000,   -50.000, 0.98290,     0,   100.000,   0.00000,   1.00000,   0.00000,   0.00000,   1.00000,1,  100.0,   100.000,     0.000
    176,'1 ',   228.000,     0.000,    90.000,   -45.000, 1.05220,     0,   100.000,   0.00000,   1.00000,   0.00000,   0.00000,   1.00000,1,  100.0,   328.000,     0.000
    177,'1 ',    84.000,     0.000,    35.000,   -15.000, 1.00770,     0,   100.000,   0.00000,   1.00000,   0.00000,   0.00000,   1.00000,1,  100.0,   184.000,     0.000
    185,'1 ',   200.000,     0.000,    80.000,   -50.000, 1.05220,     0,   100.000,   0.00000,   1.00000,   0.00000,   0.00000,   1.00000,1,  100.0,   300.000,     0.000
    186,'1 ',  1200.000,     0.000,   400.000,  -100.000, 1.06500,     0,   100.000,   0.00000,   1.00000,   0.00000,   0.00000,   1.00000,1,  100.0,  1300.000,     0.000
    187,'1 ',  1200.000,     0.000,   400.000,  -100.000, 1.06500,     0,   100.000,   0.00000,   1.00000,   0.00000,   0.00000,   1.00000,1,  100.0,  1300.000,     0.000
    190,'1 ',   475.000,     0.000,   300.000,  -300.000, 1.05510,     0,   100.000,   0.00000,   1.00000,   0.00000,   0.00000,   1.00000,1,  100.0,   575.000,     0.000
    191,'1 ',  1973.000,     0.000,  1000.000, -1000.000, 1.04350,     0,   100.000,   0.00000,   1.00000,   0.00000,   0.00000,   1.00000,1,  100.0,  2073.000,     0.000
    198,'1 ',   424.000,     0.000,   260.000,  -260.000, 1.01500,     0,   100.000,   0.00000,   1.00000,   0.00000,   0.00000,   1.00000,1,  100.0,   524.000,     0.000
    213,'1 ',   272.000,     0.000,   150.000,  -150.000, 1.01000,     0,   100.000,   0.00000,   1.00000,   0.00000,   0.00000,   1.00000,1,  100.0,   372.000,     0.000
    220,'1 ',   100.000,     0.000,    60.000,   -60.000, 1.00800,     0,   100.000,   0.00000,   1.00000,   0.00000,   0.00000,   1.00000,1,  100.0,   200.000,     0.000
    221,'1 ',   450.000,     0.000,   320.000,  -320.000, 1.00000,     0,   100.000,   0.00000,   1.00000,   0.00000,   0.00000,   1.00000,1,  100.0,   550.000,     0.000
    222,'1 ',   250.000,     0.000,   300.000,  -300.000, 1.05000,     0,   100.000,   0.00000,   1.00000,   0.00000,   0.00000,   1.00000,1,  100.0,   350.000,     0.000
    227,'1 ',   303.000,     0.000,   300.000,  -300.000, 1.00000,     0,   100.000,   0.00000,   1.00000,   0.00000,   0.00000,   1.00000,1,  100.0,   403.000,     0.000
    230,'1 ',   345.000,     0.000,   250.000,  -250.000, 1.04000,     0,   100.000,   0.00000,   1.00000,   0.00000,   0.00000,   1.00000,1,  100.0,   445.000,     0.000
    233,'1 ',   300.000,     0.000,   500.000,  -500.000, 1.00000,     0,   100.000,   0.00000,   1.00000,   0.00000,   0.00000,   1.00000,1,  100.0,   400.000,     0.000
    236,'1 ',   600.000,     0.000,   300.000,  -300.000, 1.01650,     0,   100.000,   0.00000,   1.00000,   0.00000,   0.00000,   1.00000,1,  100.0,   700.000,     0.000
    238,'1 ',   250.000,     0.000,   200.000,  -200.000, 1.01000,     0,   100.000,   0.00000,   1.00000,   0.00000,   0.00000,   1.00000,1,  100.0,   350.000,     0.000
    239,'1 ',   550.000,     0.000,   400.000,  -400.000, 1.00000,     0,   100.000,   0.00000,   1.00000,   0.00000,   0.00000,   1.00000,1,  100.0,   650.000,     0.000
    241,'1 ',   575.430,     0.000,   600.000,  -600.000, 1.05000,     0,   100.000,   0.00000,   1.00000,   0.00000,   0.00000,   1.00000,1,  100.0,   675.430,     0.000
    242,'1 ',   170.000,     0.000,   100.000,    40.000, 0.99300,     0,   100.000,   0.00000,   1.00000,   0.00000,   0.00000,   1.00000,1,  100.0,   270.000,     0.000
    243,'1 ',    84.000,     0.000,    80.000,    40.000, 1.01000,     0,   100.000,   0.00000,   1.00000,   0.00000,   0.00000,   1.00000,1,  100.0,   184.000,     0.000
   7001,'1 ',   467.000,     0.000,   210.000,  -210.000, 1.05070,     0,   100.000,   0.00000,   1.00000,   0.00000,   0.00000,   1.00000,1,  100.0,   567.000,     0.000
   7002,'1 ',   623.000,     0.000,   280.000,  -280.000, 1.05070,     0,   100.000,   0.00000,   1.00000,   0.00000,   0.00000,   1.00000,1,  100.0,   723.000,     0.000
   7003,'1 ',  1210.000,     0.000,   420.000,  -420.000, 1.03230,     0,   100.000,   0.00000,   1.00000,   0.00000,   0.00000,   1.00000,1,  100.0,  1310.000,     0.000
   7011,'1 ',   234.000,     0.000,   100.000,  -100.000, 1.01450,     0,   100.000,   0.00000,   1.00000,   0.00000,   0.00000,   1.00000,1,  100.0,   334.000,     0.000
   7012,'1 ',   372.000,     0.000,   224.000,  -224.000, 1.05070,     0,   100.000,   0.00000,   1.00000,   0.00000,   0.00000,   1.00000,1,  100.0,   472.000,     0.000
   7017,'1 ',   330.000,     0.000,   350.000,     0.000, 1.05070,     0,   100.000,   0.00000,   1.00000,   0.00000,   0.00000,   1.00000,1,  100.0,   430.000,     0.000
   7023,'1 ',   185.000,     0.000,   120.000,     0.000, 1.05070,     0,   100.000,   0.00000,   1.00000,   0.00000,   0.00000,   1.00000,1,  100.0,   285.000,     0.000
   7024,'1 ',   410.000,     0.000,   224.000,  -224.000, 1.02900,     0,   100.000,   0.00000,   1.00000,   0.00000,   0.00000,   1.00000,1,  100.0,   510.000,     0.000
   7039,'1 ',   500.000,     0.000,   200.000,  -200.000, 1.05000,     0,   100.000,   0.00000,   1.00000,   0.00000,   0.00000,   1.00000,1,  100.0,   600.000,     0.000
   7044,'1 ',    37.000,     0.000,    42.000,     0.000, 1.01450,     0,   100.000,   0.00000,   1.00000,   0.00000,   0.00000,   1.00000,1,  100.0,   137.000,     0.000
   7049,'1 ',     0.000,     0.000,    10.000,     0.000, 1.05070,     0,   100.000,   0.00000,   1.00000,   0.00000,   0.00000,   1.00000,1,  100.0,  2399.010,     0.000
   7055,'1 ',    45.000,     0.000,    25.000,     0.000, 0.99670,     0,   100.000,   0.00000,   1.00000,   0.00000,   0.00000,   1.00000,1,  100.0,   145.000,     0.000
   7057,'1 ',   165.000,     0.000,    90.000,   -90.000, 1.02120,     0,   100.000,   0.00000,   1.00000,   0.00000,   0.00000,   1.00000,1,  100.0,   265.000,     0.000
   7061,'1 ',   400.000,     0.000,   150.000,  -150.000, 1.01450,     0,   100.000,   0.00000,   1.00000,   0.00000,   0.00000,   1.00000,1,  100.0,   500.000,     0.000
   7062,'1 ',   400.000,     0.000,   150.000,     0.000, 1.00170,     0,   100.000,   0.00000,   1.00000,   0.00000,   0.00000,   1.00000,1,  100.0,   500.000,     0.000
   7071,'1 ',   116.000,     0.000,    87.000,     0.000, 0.98930,     0,   100.000,   0.00000,   1.00000,   0.00000,   0.00000,   1.00000,1,  100.0,   216.000,     0.000
   7130,'1 ',  1292.000,     0.000,   600.000,  -100.000, 1.05070,     0,   100.000,   0.00000,   1.00000,   0.00000,   0.00000,   1.00000,1,  100.0,  1392.000,     0.000
   7139,'1 ',   700.000,     0.000,   325.000,  -125.000, 1.05070,     0,   100.000,   0.00000,   1.00000,   0.00000,   0.00000,   1.00000,1,  100.0,   800.000,     0.000
   7166,'1 ',   553.000,     0.000,   300.000,  -200.000, 1.01450,     0,   100.000,   0.00000,   1.00000,   0.00000,   0.00000,   1.00000,1,  100.0,   653.000,     0.000
   9002,'1 ',     0.000,     0.000,     2.000,    -2.000, 0.99450,     0,   100.000,   0.00000,   1.00000,   0.00000,   0.00000,   1.00000,1,  100.0,   100.000,     0.000
   9051,'1 ',     0.000,     0.000,    17.350,   -17.350, 1.00000,     0,   100.000,   0.00000,   1.00000,   0.00000,   0.00000,   1.00000,1,  100.0,   100.000,     0.000
   9053,'1 ',     0.000,     0.000,    12.830,   -12.800, 1.00000,     0,   100.000,   0.00000,   1.00000,   0.00000,   0.00000,   1.00000,1,  100.0,   100.000,     0.000
   9054,'1 ',    50.000,     0.000,    38.000,   -38.000, 1.00000,     0,   100.000,   0.00000,   1.00000,   0.00000,   0.00000,   1.00000,1,  100.0,   150.000,     0.000
   9055,'1 ',     8.000,     0.000,     6.000,    -6.000, 1.00000,     0,   100.000,   0.00000,   1.00000,   0.00000,   0.00000,   1.00000,1,  100.0,   108.000,     0.000
0 / END OF GENERATOR DATA, BEGIN BRANCH DATA
     37,   9001,'1 ',   0.00006,   0.00046,   0.00000,  9900.00,     0.00,    75.00, 1.00820,   0.000, 0.00000, 0.00000, 0.00000, 0.00000,1
   9001,   9005,'1 ',   0.00080,   0.00348,   0.00000,  9900.00,     0.00,     0.00, 0.00000,   0.000, 0.00000, 0.00000, 0.00000, 0.00000,1
   9001,   9006,'1 ',   0.02439,   0.43682,   0.00000,  9900.00,     0.00,     0.00, 0.96680,   0.000, 0.00000, 0.00000, 0.00000, 0.00000,1
   9001,   9012,'1 ',   0.03624,   0.64898,   0.00000,  9900.00,     0.00,     0.00, 0.97960,   0.000, 0.00000, 0.00000, 0.00000, 0.00000,1
   9005,   9051,'1 ',   0.01578,   0.37486,   0.00000,  9900.00,     0.00,     0.00, 1.04350,   0.000, 0.00000, 0.00000, 0.00000, 0.00000,1
   9005,   9052,'1 ',   0.01578,   0.37486,   0.00000,  9900.00,     0.00,     0.00, 0.93910,   0.000, 0.00000, 0.00000, 0.00000, 0.00000,1
   9005,   9053,'1 ',   0.01602,   0.38046,   0.00000,  9900.00,     0.00,     0.00, 1.04350,   0.000, 0.00000, 0.00000, 0.00000, 0.00000,1
   9005,   9054,'1 ',   0.00000,   0.15200,   0.00000,  9900.00,     0.00,     0.00, 1.04350,   0.000, 0.00000, 0.00000, 0.00000, 0.00000,1
   9005,   9055,'1 ',   0.00000,   0.80000,   0.00000,  9900.00,     0.00,     0.00, 1.04350,   0.000, 0.00000, 0.00000, 0.00000, 0.00000,1
   9006,   9007,'1 ',   0.05558,   0.24666,   0.00000,  9900.00,     0.00,     0.00, 0.00000,   0.000, 0.00000, 0.00000, 0.00000, 0.00000,1
   9006,   9003,'1 ',   0.11118,   0.49332,   0.00000,  9900.00,     0.00,     0.00, 0.00000,   0.000, 0.00000, 0.00000, 0.00000, 0.00000,1
   9006,   9003,'2 ',   0.11118,   0.49332,   0.00000,  9900.00,     0.00,     0.00, 0.00000,   0.000, 0.00000, 0.00000, 0.00000, 0.00000,1
   9012,   9002,'1 ',   0.07622,   0.43286,   0.00000,  9900.00,     0.00,     0.00, 0.00000,   0.000, 0.00000, 0.00000, 0.00000, 0.00000,1
   9012,   9002,'2 ',   0.07622,   0.43286,   0.00000,  9900.00,     0.00,     0.00, 0.00000,   0.000, 0.00000, 0.00000, 0.00000, 0.00000,1
   9002,   9021,'1 ',   0.05370,   0.07026,   0.00000,  9900.00,     0.00,     0.00, 0.00000,   0.000, 0.00000, 0.00000, 0.00000, 0.00000,1
   9021,   9023,'1 ',   1.10680,   0.95278,   0.00000,  9900.00,     0.00,     0.00, 0.00000,   0.000, 0.00000, 0.00000, 0.00000, 0.00000,1
   9021,   9022,'1 ',   0.44364,   2.81520,   0.00000,  9900.00,     0.00,     0.00, 1.00000,   0.000, 0.00000, 0.00000, 0.00000, 0.00000,1
   9002,   9024,'1 ',   0.50748,   3.22020,   0.00000,  9900.00,     0.00,     0.00, 1.00000,   0.000, 0.00000, 0.00000, 0.00000, 0.00000,1
   9023,   9025,'1 ',   0.66688,   3.94400,   0.00000,  9900.00,     0.00,     0.00, 1.00000,   0.000, 0.00000, 0.00000, 0.00000, 0.00000,1
   9023,   9026,'1 ',   0.61130,   3.61520,   0.00000,  9900.00,     0.00,     0.00, 1.00000,   0.000, 0.00000, 0.00000, 0.00000, 0.00000,1
   9007,   9071,'1 ',   0.44120,   2.96680,   0.00000,  9900.00,     0.00,     0.00, 1.00000,   0.000, 0.00000, 0.00000, 0.00000, 0.00000,1
   9007,   9072,'1 ',   0.30792,   2.05700,   0.00000,  9900.00,     0.00,     0.00, 1.00000,   0.000, 0.00000, 0.00000, 0.00000, 0.00000,1
   9007,   9003,'1 ',   0.05580,   0.24666,   0.00000,  9900.00,     0.00,     0.00, 0.00000,   0.000, 0.00000, 0.00000, 0.00000, 0.00000,1
   9003,   9031,'1 ',   0.73633,   4.67240,   0.00000,  9900.00,     0.00,     0.00, 1.00000,   0.000, 0.00000, 0.00000, 0.00000, 0.00000,1
   9003,   9032,'1 ',   0.76978,   4.88460,   0.00000,  9900.00,     0.00,     0.00, 1.00000,   0.000, 0.00000, 0.00000, 0.00000, 0.00000,1
   9003,   9033,'1 ',   0.75732,   4.80560,   0.00000,  9900.00,     0.00,     0.00, 1.00000,   0.000, 0.00000, 0.00000, 0.00000, 0.00000,1
   9003,   9044,'1 ',   0.07378,   0.06352,   0.00000,  9900.00,     0.00,     0.00, 0.00000,   0.000, 0.00000, 0.00000, 0.00000, 0.00000,1
   9044,   9004,'1 ',   0.03832,   0.02894,   0.00000,  9900.00,     0.00,     0.00, 0.00000,   0.000, 0.00000, 0.00000, 0.00000, 0.00000,1
   9004,   9041,'1 ',   0.36614,   2.45600,   0.00000,  9900.00,     0.00,     0.00, 1.00000,   0.000, 0.00000, 0.00000, 0.00000, 0.00000,1
   9004,   9042,'1 ',   1.05930,   5.45360,   0.00000,  9900.00,     0.00,     0.00, 1.00000,   0.000, 0.00000, 0.00000, 0.00000, 0.00000,1
   9004,   9043,'1 ',   0.15670,   1.69940,   0.00000,  9900.00,     0.00,     0.00, 1.00000,   0.000, 0.00000, 0.00000, 0.00000, 0.00000,1
   9003,   9034,'1 ',   0.13006,   1.39120,   0.00000,  9900.00,     0.00,     0.00, 1.00000,   0.000, 0.00000, 0.00000, 0.00000, 0.00000,1
   9003,   9035,'1 ',   0.54484,   3.45720,   0.00000,  9900.00,     0.00,     0.00, 1.00000,   0.000, 0.00000, 0.00000, 0.00000, 0.00000,1
   9003,   9036,'1 ',   0.15426,   1.67290,   0.00000,  9900.00,     0.00,     0.00, 1.00000,   0.000, 0.00000, 0.00000, 0.00000, 0.00000,1
   9003,   9037,'1 ',   0.38490,   2.57120,   0.00000,  9900.00,     0.00,     0.00, 1.00000,   0.000, 0.00000, 0.00000, 0.00000, 0.00000,1
   9003,   9038,'1 ',   0.44120,   2.96680,   0.00000,  9900.00,     0.00,     0.00, 1.00000,   0.000, 0.00000, 0.00000, 0.00000, 0.00000,1
   9012,   9121,'1 ',   0.23552,   0.99036,   0.00000,  9900.00,     0.00,     0.00, 0.00000,   0.000, 0.00000, 0.00000, 0.00000, 0.00000,1
   9053,   9533,'1 ',   0.00000,   0.75000,   0.00000,  9900.00,     0.00,     0.00, 0.95830,   0.000, 0.00000, 0.00000, 0.00000, 0.00000,1
      1,      5,'1 ',   0.00100,   0.00600,   0.00000,  9900.00,     0.00,     0.00, 0.00000,   0.000, 0.00000, 0.00000, 0.00000, 0.00000,1
      2,      6,'1 ',   0.00100,   0.00900,   0.00000,  9900.00,     0.00,     0.00, 0.00000,   0.000, 0.00000, 0.00000, 0.00000, 0.00000,1
      2,      8,'1 ',   0.00600,   0.02700,   0.05400,  9900.00,     0.00,     0.00, 0.00000,   0.000, 0.00000, 0.00000, 0.00000, 0.00000,1
      3,      7,'1 ',   0.00000,   0.00300,   0.00000,  9900.00,     0.00,     0.00, 0.00000,   0.000, 0.00000, 0.00000, 0.00000, 0.00000,1
      3,     19,'1 ',   0.00800,   0.06900,   0.13900,  9900.00,     0.00,     0.00, 0.00000,   0.000, 0.00000, 0.00000, 0.00000, 0.00000,1
      3,    150,'1 ',   0.00100,   0.00700,   0.00000,  9900.00,     0.00,     0.00, 0.00000,   0.000, 0.00000, 0.00000, 0.00000, 0.00000,1
      4,     16,'1 ',   0.00200,   0.01900,   1.12700,  9900.00,     0.00,     0.00, 0.00000,   0.000, 0.00000, 0.00000, 0.00000, 0.00000,1
      5,      9,'1 ',   0.00600,   0.02900,   0.01800,  9900.00,     0.00,     0.00, 0.00000,   0.000, 0.00000, 0.00000, 0.00000, 0.00000,1
      7,     12,'1 ',   0.00100,   0.00900,   0.07000,  9900.00,     0.00,     0.00, 0.00000,   0.000, 0.00000, 0.00000, 0.00000, 0.00000,1
      7,    131,'1 ',   0.00100,   0.00700,   0.01400,  9900.00,     0.00,     0.00, 0.00000,   0.000, 0.00000, 0.00000, 0.00000, 0.00000,1
      8,     11,'1 ',   0.01300,   0.05950,   0.03300,  9900.00,     0.00,     0.00, 0.00000,   0.000, 0.00000, 0.00000, 0.00000, 0.00000,1
      8,     14,'1 ',   0.01300,   0.04200,   0.08100,  9900.00,     0.00,     0.00, 0.00000,   0.000, 0.00000, 0.00000, 0.00000, 0.00000,1
      9,     11,'1 ',   0.00600,   0.02700,   0.01300,  9900.00,     0.00,     0.00, 0.00000,   0.000, 0.00000, 0.00000, 0.00000, 0.00000,1
     11,     13,'1 ',   0.00800,   0.03400,   0.01800,  9900.00,     0.00,     0.00, 0.00000,   0.000, 0.00000, 0.00000, 0.00000, 0.00000,1
     12,     21,'1 ',   0.00200,   0.01500,   0.11800,  9900.00,     0.00,     0.00, 0.00000,   0.000, 0.00000, 0.00000, 0.00000, 0.00000,1
     13,     20,'1 ',   0.00600,   0.03400,   0.01600,  9900.00,     0.00,     0.00, 0.00000,   0.000, 0.00000, 0.00000, 0.00000, 0.00000,1
     14,     15,'1 ',   0.01400,   0.04200,   0.09700,  9900.00,     0.00,     0.00, 0.00000,   0.000, 0.00000, 0.00000, 0.00000, 0.00000,1
     15,     37,'1 ',   0.06500,   0.24800,   0.12100,  9900.00,     0.00,     0.00, 0.00000,   0.000, 0.00000, 0.00000, 0.00000, 0.00000,1
     15,     89,'1 ',   0.09900,   0.24800,   0.03500,  9900.00,     0.00,     0.00, 0.00000,   0.000, 0.00000, 0.00000, 0.00000, 0.00000,1
     15,     90,'1 ',   0.09600,   0.36300,   0.04800,  9900.00,     0.00,     0.00, 0.00000,   0.000, 0.00000, 0.00000, 0.00000, 0.00000,1
     16,     42,'1 ',   0.00200,   0.02200,   1.28000,  9900.00,     0.00,     0.00, 0.00000,   0.000, 0.00000, 0.00000, 0.00000, 0.00000,1
     19,     21,'1 ',   0.00200,   0.01800,   0.03600,  9900.00,     0.00,     0.00, 0.00000,   0.000, 0.00000, 0.00000, 0.00000, 0.00000,1
     19,     87,'1 ',   0.01300,   0.08000,   0.15100,  9900.00,     0.00,     0.00, 0.00000,   0.000, 0.00000, 0.00000, 0.00000, 0.00000,1
     20,     22,'1 ',   0.01600,   0.03300,   0.01500,  9900.00,     0.00,     0.00, 0.00000,   0.000, 0.00000, 0.00000, 0.00000, 0.00000,1
     20,     27,'1 ',   0.06900,   0.18600,   0.09800,  9900.00,     0.00,     0.00, 0.00000,   0.000, 0.00000, 0.00000, 0.00000, 0.00000,1
     21,     24,'1 ',   0.00400,   0.03400,   0.28000,  9900.00,     0.00,     0.00, 0.00000,   0.000, 0.00000, 0.00000, 0.00000, 0.00000,1
     22,     23,'1 ',   0.05200,   0.11100,   0.05000,  9900.00,     0.00,     0.00, 0.00000,   0.000, 0.00000, 0.00000, 0.00000, 0.00000,1
     23,     25,'1 ',   0.01900,   0.03900,   0.01800,  9900.00,     0.00,     0.00, 0.00000,   0.000, 0.00000, 0.00000, 0.00000, 0.00000,1
     24,    319,'1 ',   0.00700,   0.06800,   0.13400,  9900.00,     0.00,     0.00, 0.00000,   0.000, 0.00000, 0.00000, 0.00000, 0.00000,1
     25,     26,'1 ',   0.03600,   0.07100,   0.03400,  9900.00,     0.00,     0.00, 0.00000,   0.000, 0.00000, 0.00000, 0.00000, 0.00000,1
     26,     27,'1 ',   0.04500,   0.12000,   0.06500,  9900.00,     0.00,     0.00, 0.00000,   0.000, 0.00000, 0.00000, 0.00000, 0.00000,1
     26,    320,'1 ',   0.04300,   0.13000,   0.01400,  9900.00,     0.00,     0.00, 0.00000,   0.000, 0.00000, 0.00000, 0.00000, 0.00000,1
     33,     34,'1 ',   0.00000,   0.06300,   0.00000,  9900.00,     0.00,     0.00, 0.00000,   0.000, 0.00000, 0.00000, 0.00000, 0.00000,1
     33,     38,'1 ',   0.00250,   0.01200,   0.01300,  9900.00,     0.00,     0.00, 0.00000,   0.000, 0.00000, 0.00000, 0.00000, 0.00000,1
     33,     40,'1 ',   0.00600,   0.02900,   0.02000,  9900.00,     0.00,     0.00, 0.00000,   0.000, 0.00000, 0.00000, 0.00000, 0.00000,1
     33,     41,'1 ',   0.00700,   0.04300,   0.02600,  9900.00,     0.00,     0.00, 0.00000,   0.000, 0.00000, 0.00000, 0.00000, 0.00000,1
     34,     42,'1 ',   0.00100,   0.00800,   0.04200,  9900.00,     0.00,     0.00, 0.00000,   0.000, 0.00000, 0.00000, 0.00000, 0.00000,1
     35,     72,'1 ',   0.01200,   0.06000,   0.00800,  9900.00,     0.00,     0.00, 0.00000,   0.000, 0.00000, 0.00000, 0.00000, 0.00000,1
     35,     76,'1 ',   0.00600,   0.01400,   0.00200,  9900.00,     0.00,     0.00, 0.00000,   0.000, 0.00000, 0.00000, 0.00000, 0.00000,1
     35,     77,'1 ',   0.01000,   0.02900,   0.00300,  9900.00,     0.00,     0.00, 0.00000,   0.000, 0.00000, 0.00000, 0.00000, 0.00000,1
     36,     88,'1 ',   0.00400,   0.02700,   0.04300,  9900.00,     0.00,     0.00, 0.00000,   0.000, 0.00000, 0.00000, 0.00000, 0.00000,1
     37,     38,'1 ',   0.00800,   0.04700,   0.00800,  9900.00,     0.00,     0.00, 0.00000,   0.000, 0.00000, 0.00000, 0.00000, 0.00000,1
     37,     40,'1 ',   0.02200,   0.06400,   0.00700,  9900.00,     0.00,     0.00, 0.00000,   0.000, 0.00000, 0.00000, 0.00000, 0.00000,1
     37,     41,'1 ',   0.01000,   0.03600,   0.02000,  9900.00,     0.00,     0.00, 0.00000,   0.000, 0.00000, 0.00000, 0.00000, 0.00000,1
     37,     49,'1 ',   0.01700,   0.08100,   0.04800,  9900.00,     0.00,     0.00, 0.00000,   0.000, 0.00000, 0.00000, 0.00000, 0.00000,1
     37,     89,'1 ',   0.10200,   0.25400,   0.03300,  9900.00,     0.00,     0.00, 0.00000,   0.000, 0.00000, 0.00000, 0.00000, 0.00000,1
     37,     90,'1 ',   0.04700,   0.12700,   0.01600,  9900.00,     0.00,     0.00, 0.00000,   0.000, 0.00000, 0.00000, 0.00000, 0.00000,1
     38,     41,'1 ',   0.00800,   0.03700,   0.02000,  9900.00,     0.00,     0.00, 0.00000,   0.000, 0.00000, 0.00000, 0.00000, 0.00000,1
     38,     43,'1 ',   0.03200,   0.08700,   0.04000,  9900.00,     0.00,     0.00, 0.00000,   0.000, 0.00000, 0.00000, 0.00000, 0.00000,1
     39,     42,'1 ',   0.00060,   0.00640,   0.40400,  9900.00,     0.00,     0.00, 0.00000,   0.000, 0.00000, 0.00000, 0.00000, 0.00000,1
     40,     48,'1 ',   0.02600,   0.15400,   0.02200,  9900.00,     0.00,     0.00, 0.00000,   0.000, 0.00000, 0.00000, 0.00000, 0.00000,1
     41,     42,'1 ',   0.00000,   0.02900,   0.00000,  9900.00,     0.00,     0.00, 0.00000,   0.000, 0.00000, 0.00000, 0.00000, 0.00000,1
     41,     49,'1 ',   0.06500,   0.19100,   0.02000,  9900.00,     0.00,     0.00, 0.00000,   0.000, 0.00000, 0.00000, 0.00000, 0.00000,1
     41,     51,'1 ',   0.03100,   0.08900,   0.03600,  9900.00,     0.00,     0.00, 0.00000,   0.000, 0.00000, 0.00000, 0.00000, 0.00000,1
     42,     46,'1 ',   0.00200,   0.01400,   0.80600,  9900.00,     0.00,     0.00, 0.00000,   0.000, 0.00000, 0.00000, 0.00000, 0.00000,1
     43,     44,'1 ',   0.02600,   0.07200,   0.03500,  9900.00,     0.00,     0.00, 0.00000,   0.000, 0.00000, 0.00000, 0.00000, 0.00000,1
     43,     48,'1 ',   0.09500,   0.26200,   0.03200,  9900.00,     0.00,     0.00, 0.00000,   0.000, 0.00000, 0.00000, 0.00000, 0.00000,1
     43,     53,'1 ',   0.01300,   0.03900,   0.01600,  9900.00,     0.00,     0.00, 0.00000,   0.000, 0.00000, 0.00000, 0.00000, 0.00000,1
     44,     47,'1 ',   0.02700,   0.08400,   0.03900,  9900.00,     0.00,     0.00, 0.00000,   0.000, 0.00000, 0.00000, 0.00000, 0.00000,1
     44,     54,'1 ',   0.02800,   0.08400,   0.03700,  9900.00,     0.00,     0.00, 0.00000,   0.000, 0.00000, 0.00000, 0.00000, 0.00000,1
     45,     60,'1 ',   0.00700,   0.04100,   0.31200,  9900.00,     0.00,     0.00, 0.00000,   0.000, 0.00000, 0.00000, 0.00000, 0.00000,1
     45,     74,'1 ',   0.00900,   0.05400,   0.41100,  9900.00,     0.00,     0.00, 0.00000,   0.000, 0.00000, 0.00000, 0.00000, 0.00000,1
     46,     81,'1 ',   0.00500,   0.04200,   0.69000,  9900.00,     0.00,     0.00, 0.00000,   0.000, 0.00000, 0.00000, 0.00000, 0.00000,1
     47,     73,'1 ',   0.05200,   0.14500,   0.07300,  9900.00,     0.00,     0.00, 0.00000,   0.000, 0.00000, 0.00000, 0.00000, 0.00000,1
     47,    113,'1 ',   0.04300,   0.11800,   0.01300,  9900.00,     0.00,     0.00, 0.00000,   0.000, 0.00000, 0.00000, 0.00000, 0.00000,1
     48,    107,'1 ',   0.02500,   0.06200,   0.00700,  9900.00,     0.00,     0.00, 0.00000,   0.000, 0.00000, 0.00000, 0.00000, 0.00000,1
     49,     51,'1 ',   0.03100,   0.09400,   0.04300,  9900.00,     0.00,     0.00, 0.00000,   0.000, 0.00000, 0.00000, 0.00000, 0.00000,1
     51,     52,'1 ',   0.03700,   0.10900,   0.04900,  9900.00,     0.00,     0.00, 0.00000,   0.000, 0.00000, 0.00000, 0.00000, 0.00000,1
     52,     55,'1 ',   0.02700,   0.08000,   0.03600,  9900.00,     0.00,     0.00, 0.00000,   0.000, 0.00000, 0.00000, 0.00000, 0.00000,1
     53,     54,'1 ',   0.02500,   0.07300,   0.03500,  9900.00,     0.00,     0.00, 0.00000,   0.000, 0.00000, 0.00000, 0.00000, 0.00000,1
     54,     55,'1 ',   0.03500,   0.10300,   0.04700,  9900.00,     0.00,     0.00, 0.00000,   0.000, 0.00000, 0.00000, 0.00000, 0.00000,1
     55,     57,'1 ',   0.06500,   0.16900,   0.08200,  9900.00,     0.00,     0.00, 0.00000,   0.000, 0.00000, 0.00000, 0.00000, 0.00000,1
     57,     58,'1 ',   0.04600,   0.08000,   0.03600,  9900.00,     0.00,     0.00, 0.00000,   0.000, 0.00000, 0.00000, 0.00000, 0.00000,1
     57,     63,'1 ',   0.15900,   0.53700,   0.07100,  9900.00,     0.00,     0.00, 0.00000,   0.000, 0.00000, 0.00000, 0.00000, 0.00000,1
     58,     59,'1 ',   0.00900,   0.02600,   0.00500,  9900.00,     0.00,     0.00, 0.00000,   0.000, 0.00000, 0.00000, 0.00000, 0.00000,1
     59,     61,'1 ',   0.00200,   0.01300,   0.01500,  9900.00,     0.00,     0.00, 0.00000,   0.000, 0.00000, 0.00000, 0.00000, 0.00000,1
     60,     62,'1 ',   0.00900,   0.06500,   0.48500,  9900.00,     0.00,     0.00, 0.00000,   0.000, 0.00000, 0.00000, 0.00000, 0.00000,1
     62,     64,'1 ',   0.01600,   0.10500,   0.20300,  9900.00,     0.00,     0.00, 0.00000,   0.000, 0.00000, 0.00000, 0.00000, 0.00000,1
     62,    144,'1 ',   0.00100,   0.00700,   0.01300,  9900.00,     0.00,     0.00, 0.00000,   0.000, 0.00000, 0.00000, 0.00000, 0.00000,1
     63,    526,'1 ',   0.02650,   0.17200,   0.02600,  9900.00,     0.00,     0.00, 0.00000,   0.000, 0.00000, 0.00000, 0.00000, 0.00000,1
     69,    211,'1 ',   0.05100,   0.23200,   0.02800,  9900.00,     0.00,     0.00, 0.00000,   0.000, 0.00000, 0.00000, 0.00000, 0.00000,1
     69,     79,'1 ',   0.05100,   0.15700,   0.02300,  9900.00,     0.00,     0.00, 0.00000,   0.000, 0.00000, 0.00000, 0.00000, 0.00000,1
     70,     71,'1 ',   0.03200,   0.10000,   0.06200,  9900.00,     0.00,     0.00, 0.00000,   0.000, 0.00000, 0.00000, 0.00000, 0.00000,1
     70,    528,'1 ',   0.02000,   0.12340,   0.02800,  9900.00,     0.00,     0.00, 0.00000,   0.000, 0.00000, 0.00000, 0.00000, 0.00000,1
     71,     72,'1 ',   0.03600,   0.13100,   0.06800,  9900.00,     0.00,     0.00, 0.00000,   0.000, 0.00000, 0.00000, 0.00000, 0.00000,1
     71,     73,'1 ',   0.03400,   0.09900,   0.04700,  9900.00,     0.00,     0.00, 0.00000,   0.000, 0.00000, 0.00000, 0.00000, 0.00000,1
     72,     77,'1 ',   0.01800,   0.08700,   0.01100,  9900.00,     0.00,     0.00, 0.00000,   0.000, 0.00000, 0.00000, 0.00000, 0.00000,1
     72,    531,'1 ',   0.02560,   0.19300,   0.00000,  9900.00,     0.00,     0.00, 0.00000,   0.000, 0.00000, 0.00000, 0.00000, 0.00000,1
     73,     76,'1 ',   0.02100,   0.05700,   0.03000,  9900.00,     0.00,     0.00, 0.00000,   0.000, 0.00000, 0.00000, 0.00000, 0.00000,1
     73,     79,'1 ',   0.01800,   0.05200,   0.01800,  9900.00,     0.00,     0.00, 0.00000,   0.000, 0.00000, 0.00000, 0.00000, 0.00000,1
     74,     88,'1 ',   0.00400,   0.02700,   0.05000,  9900.00,     0.00,     0.00, 0.00000,   0.000, 0.00000, 0.00000, 0.00000, 0.00000,1
     74,    562,'1 ',   0.02860,   0.20130,   0.37900,  9900.00,     0.00,     0.00, 0.00000,   0.000, 0.00000, 0.00000, 0.00000, 0.00000,1
     76,     77,'1 ',   0.01600,   0.04300,   0.00400,  9900.00,     0.00,     0.00, 0.00000,   0.000, 0.00000, 0.00000, 0.00000, 0.00000,1
     77,     78,'1 ',   0.00100,   0.00600,   0.00700,  9900.00,     0.00,     0.00, 0.00000,   0.000, 0.00000, 0.00000, 0.00000, 0.00000,1
     77,     80,'1 ',   0.01400,   0.07000,   0.03800,  9900.00,     0.00,     0.00, 0.00000,   0.000, 0.00000, 0.00000, 0.00000, 0.00000,1
     77,    552,'1 ',   0.08910,   0.26760,   0.02900,  9900.00,     0.00,     0.00, 0.00000,   0.000, 0.00000, 0.00000, 0.00000, 0.00000,1
     77,    609,'1 ',   0.07820,   0.21270,   0.02200,  9900.00,     0.00,     0.00, 0.00000,   0.000, 0.00000, 0.00000, 0.00000, 0.00000,1
     78,     79,'1 ',   0.00600,   0.02200,   0.01100,  9900.00,     0.00,     0.00, 0.00000,   0.000, 0.00000, 0.00000, 0.00000, 0.00000,1
     78,     84,'1 ',   0.00000,   0.03600,   0.00000,  9900.00,     0.00,     0.00, 0.00000,   0.000, 0.00000, 0.00000, 0.00000, 0.00000,1
     79,    211,'1 ',   0.09900,   0.37500,   0.05100,  9900.00,     0.00,     0.00, 0.00000,   0.000, 0.00000, 0.00000, 0.00000, 0.00000,1
     80,    211,'1 ',   0.02200,   0.10700,   0.05800,  9900.00,     0.00,     0.00, 0.00000,   0.000, 0.00000, 0.00000, 0.00000, 0.00000,1
     81,    194,'1 ',   0.00350,   0.03300,   0.53000,  9900.00,     0.00,     0.00, 0.00000,   0.000, 0.00000, 0.00000, 0.00000, 0.00000,1
     81,    195,'1 ',   0.00350,   0.03300,   0.53000,  9900.00,     0.00,     0.00, 0.00000,   0.000, 0.00000, 0.00000, 0.00000, 0.00000,1
     85,     86,'1 ',   0.00800,   0.06400,   0.12800,  9900.00,     0.00,     0.00, 0.00000,   0.000, 0.00000, 0.00000, 0.00000, 0.00000,1
     86,     87,'1 ',   0.01200,   0.09300,   0.18300,  9900.00,     0.00,     0.00, 0.00000,   0.000, 0.00000, 0.00000, 0.00000, 0.00000,1
     86,    323,'1 ',   0.00600,   0.04800,   0.09200,  9900.00,     0.00,     0.00, 0.00000,   0.000, 0.00000, 0.00000, 0.00000, 0.00000,1
     89,     91,'1 ',   0.04700,   0.11900,   0.01400,  9900.00,     0.00,     0.00, 0.00000,   0.000, 0.00000, 0.00000, 0.00000, 0.00000,1
     90,     92,'1 ',   0.03200,   0.17400,   0.02400,  9900.00,     0.00,     0.00, 0.00000,   0.000, 0.00000, 0.00000, 0.00000, 0.00000,1
     91,     94,'1 ',   0.10000,   0.25300,   0.03100,  9900.00,     0.00,     0.00, 0.00000,   0.000, 0.00000, 0.00000, 0.00000, 0.00000,1
     91,     97,'1 ',   0.02200,   0.07700,   0.03900,  9900.00,     0.00,     0.00, 0.00000,   0.000, 0.00000, 0.00000, 0.00000, 0.00000,1
     92,    103,'1 ',   0.01900,   0.14400,   0.01700,  9900.00,     0.00,     0.00, 0.00000,   0.000, 0.00000, 0.00000, 0.00000, 0.00000,1
     92,    105,'1 ',   0.01700,   0.09200,   0.01200,  9900.00,     0.00,     0.00, 0.00000,   0.000, 0.00000, 0.00000, 0.00000, 0.00000,1
     94,     97,'1 ',   0.27800,   0.42700,   0.04300,  9900.00,     0.00,     0.00, 0.00000,   0.000, 0.00000, 0.00000, 0.00000, 0.00000,1
     97,    100,'1 ',   0.02200,   0.05300,   0.00700,  9900.00,     0.00,     0.00, 0.00000,   0.000, 0.00000, 0.00000, 0.00000, 0.00000,1
     97,    102,'1 ',   0.03800,   0.09200,   0.01200,  9900.00,     0.00,     0.00, 0.00000,   0.000, 0.00000, 0.00000, 0.00000, 0.00000,1
     97,    103,'1 ',   0.04800,   0.12200,   0.01500,  9900.00,     0.00,     0.00, 0.00000,   0.000, 0.00000, 0.00000, 0.00000, 0.00000,1
     98,    100,'1 ',   0.02400,   0.06400,   0.00700,  9900.00,     0.00,     0.00, 0.00000,   0.000, 0.00000, 0.00000, 0.00000, 0.00000,1
     98,    102,'1 ',   0.03400,   0.12100,   0.01500,  9900.00,     0.00,     0.00, 0.00000,   0.000, 0.00000, 0.00000, 0.00000, 0.00000,1
     99,    107,'1 ',   0.05300,   0.13500,   0.01700,  9900.00,     0.00,     0.00, 0.00000,   0.000, 0.00000, 0.00000, 0.00000, 0.00000,1
     99,    108,'1 ',   0.00200,   0.00400,   0.00200,  9900.00,     0.00,     0.00, 0.00000,   0.000, 0.00000, 0.00000, 0.00000, 0.00000,1
     99,    109,'1 ',   0.04500,   0.35400,   0.04400,  9900.00,     0.00,     0.00, 0.00000,   0.000, 0.00000, 0.00000, 0.00000, 0.00000,1
     99,    110,'1 ',   0.05000,   0.17400,   0.02200,  9900.00,     0.00,     0.00, 0.00000,   0.000, 0.00000, 0.00000, 0.00000, 0.00000,1
    100,    102,'1 ',   0.01600,   0.03800,   0.00400,  9900.00,     0.00,     0.00, 0.00000,   0.000, 0.00000, 0.00000, 0.00000, 0.00000,1
    102,    104,'1 ',   0.04300,   0.06400,   0.02700,  9900.00,     0.00,     0.00, 0.00000,   0.000, 0.00000, 0.00000, 0.00000, 0.00000,1
    103,    105,'1 ',   0.01900,   0.06200,   0.00800,  9900.00,     0.00,     0.00, 0.00000,   0.000, 0.00000, 0.00000, 0.00000, 0.00000,1
    104,    108,'1 ',   0.07600,   0.13000,   0.04400,  9900.00,     0.00,     0.00, 0.00000,   0.000, 0.00000, 0.00000, 0.00000, 0.00000,1
    104,    322,'1 ',   0.04400,   0.12400,   0.01500,  9900.00,     0.00,     0.00, 0.00000,   0.000, 0.00000, 0.00000, 0.00000, 0.00000,1
    105,    107,'1 ',   0.01200,   0.08800,   0.01100,  9900.00,     0.00,     0.00, 0.00000,   0.000, 0.00000, 0.00000, 0.00000, 0.00000,1
    105,    110,'1 ',   0.15700,   0.40000,   0.04700,  9900.00,     0.00,     0.00, 0.00000,   0.000, 0.00000, 0.00000, 0.00000, 0.00000,1
    108,    324,'1 ',   0.07400,   0.20800,   0.02600,  9900.00,     0.00,     0.00, 0.00000,   0.000, 0.00000, 0.00000, 0.00000, 0.00000,1
    109,    110,'1 ',   0.07000,   0.18400,   0.02100,  9900.00,     0.00,     0.00, 0.00000,   0.000, 0.00000, 0.00000, 0.00000, 0.00000,1
    109,    113,'1 ',   0.10000,   0.27400,   0.03100,  9900.00,     0.00,     0.00, 0.00000,   0.000, 0.00000, 0.00000, 0.00000, 0.00000,1
    109,    114,'1 ',   0.10900,   0.39300,   0.03600,  9900.00,     0.00,     0.00, 0.00000,   0.000, 0.00000, 0.00000, 0.00000, 0.00000,1
    110,    112,'1 ',   0.14200,   0.40400,   0.05000,  9900.00,     0.00,     0.00, 0.00000,   0.000, 0.00000, 0.00000, 0.00000, 0.00000,1
    112,    114,'1 ',   0.01700,   0.04200,   0.00600,  9900.00,     0.00,     0.00, 0.00000,   0.000, 0.00000, 0.00000, 0.00000, 0.00000,1
    115,    122,'1 ',   0.00360,   0.01990,   0.00400,  9900.00,     0.00,     0.00, 0.00000,   0.000, 0.00000, 0.00000, 0.00000, 0.00000,1
    116,    120,'1 ',   0.00200,   0.10490,   0.00100,  9900.00,     0.00,     0.00, 0.00000,   0.000, 0.00000, 0.00000, 0.00000, 0.00000,1
    117,    118,'1 ',   0.00010,   0.00180,   0.01700,  9900.00,     0.00,     0.00, 0.00000,   0.000, 0.00000, 0.00000, 0.00000, 0.00000,1
    118,    119,'1 ',   0.00000,   0.02710,   0.00000,  9900.00,     0.00,     0.00, 0.00000,   0.000, 0.00000, 0.00000, 0.00000, 0.00000,1
    118,   1201,'1 ',   0.00000,   0.61630,   0.00000,  9900.00,     0.00,     0.00, 0.00000,   0.000, 0.00000, 0.00000, 0.00000, 0.00000,1
   1201,    120,'1 ',   0.00000,  -0.36970,   0.00000,  9900.00,     0.00,     0.00, 0.00000,   0.000, 0.00000, 0.00000, 0.00000, 0.00000,1
    118,    121,'1 ',   0.00220,   0.29150,   0.00000,  9900.00,     0.00,     0.00, 0.00000,   0.000, 0.00000, 0.00000, 0.00000, 0.00000,1
    119,    120,'1 ',   0.00000,   0.03390,   0.00000,  9900.00,     0.00,     0.00, 0.00000,   0.000, 0.00000, 0.00000, 0.00000, 0.00000,1
    119,    121,'1 ',   0.00000,   0.05820,   0.00000,  9900.00,     0.00,     0.00, 0.00000,   0.000, 0.00000, 0.00000, 0.00000, 0.00000,1
    122,    123,'1 ',   0.08080,   0.23440,   0.02900,  9900.00,     0.00,     0.00, 0.00000,   0.000, 0.00000, 0.00000, 0.00000, 0.00000,1
    122,    125,'1 ',   0.09650,   0.36690,   0.05400,  9900.00,     0.00,     0.00, 0.00000,   0.000, 0.00000, 0.00000, 0.00000, 0.00000,1
    123,    124,'1 ',   0.03600,   0.10760,   0.11700,  9900.00,     0.00,     0.00, 0.00000,   0.000, 0.00000, 0.00000, 0.00000, 0.00000,1
    123,    125,'1 ',   0.04760,   0.14140,   0.14900,  9900.00,     0.00,     0.00, 0.00000,   0.000, 0.00000, 0.00000, 0.00000, 0.00000,1
    125,    126,'1 ',   0.00060,   0.01970,   0.00000,  9900.00,     0.00,     0.00, 0.00000,   0.000, 0.00000, 0.00000, 0.00000, 0.00000,1
...