cases/ieee300/reference.csv
bus_id,vm_pu,va_deg,matpower_vm_pu,matpower_va_deg
1,1.028420,5.9674,1.028400,5.9500
2,1.035340,7.7550,1.035400,7.7400
3,0.997099,6.6571,0.997100,6.6400
4,1.030812,4.7283,1.030800,4.7100
5,1.019109,4.7014,1.019100,4.6800
6,1.031196,7.0061,1.031200,6.9900
7,0.993408,6.2056,0.993400,6.1900
8,1.015300,2.4153,1.015300,2.4000
9,1.003386,2.8709,1.003400,2.8500
10,1.020500,1.3632,1.020500,1.3500
11,1.005657,2.4812,1.005700,2.4600
12,0.997373,5.2303,0.997400,5.2100
13,0.997674,-0.5371,0.997700,-0.5500
14,0.999170,-4.7958,0.999100,-4.8100
15,1.034391,-8.5670,1.034300,-8.5900
16,1.031587,-2.6223,1.031500,-2.6500
17,1.064906,-13.0847,1.064900,-13.1000
19,0.981924,1.0887,0.982000,1.0800
20,1.001000,-2.4469,1.001000,-2.4600
21,0.975168,1.6340,0.975200,1.6200
22,0.996270,-1.9599,0.996300,-1.9700
23,1.050098,3.9515,1.050100,3.9400
24,1.005656,6.0330,1.005700,6.0200
25,1.023354,1.4528,1.023400,1.4400
26,0.998577,-1.7210,0.998600,-1.7300
27,0.975035,-4.8826,0.975000,-4.9000
33,1.024565,-12.0019,1.024400,-12.0200
34,1.041441,-7.9009,1.041400,-7.9400
35,0.975688,-25.6817,0.975700,-25.7200
36,1.001170,-22.5188,1.001100,-22.5900
37,1.020158,-11.2145,1.020100,-11.2300
38,1.020312,-12.5386,1.020200,-12.5600
39,1.053611,-5.7730,1.053500,-5.8100
40,1.021655,-12.7609,1.021600,-12.7800
41,1.029283,-10.4254,1.029200,-10.4500
42,1.044944,-7.4065,1.044800,-7.4400
43,1.000732,-16.7634,1.000600,-16.7900
44,1.008735,-17.4310,1.008600,-17.4700
45,1.021646,-14.6903,1.021500,-14.7400
46,1.034515,-11.6970,1.034400,-11.7500
47,0.977877,-23.1630,0.977700,-23.1700
48,1.001958,-16.1207,1.001900,-16.0900
49,1.047499,-2.9445,1.047500,-2.9500
51,1.025388,-8.1347,1.025300,-8.1500
52,0.998003,-11.8395,0.997900,-11.8600
53,0.996035,-17.5788,0.995900,-17.6000
54,1.005135,-16.2223,1.005000,-16.2500
55,1.015146,-12.1875,1.015000,-12.2100
57,1.033490,-7.9659,1.033500,-8.0000
58,0.991822,-5.9589,0.991800,-5.9900
59,0.978860,-5.2524,0.978900,-5.2900
60,1.024716,-9.5148,1.024600,-9.5600
61,0.990654,-3.4332,0.990600,-3.4700
62,1.016040,-1.0616,1.016000,-1.1000
63,0.958300,-17.5886,0.958300,-17.6200
64,0.947956,-12.9355,0.948000,-12.9700
69,0.962698,-26.4717,0.963000,-25.6600
70,0.951318,-35.1238,0.951300,-35.1600
71,0.979391,-29.8446,0.979300,-29.8800
72,0.969614,-27.4412,0.969600,-27.4800
73,0.977610,-25.7373,0.977500,-25.7700
74,0.996488,-21.9430,0.996400,-22.0000
76,0.963200,-26.5030,0.963200,-26.5400
77,0.983787,-24.9110,0.983700,-24.9400
78,0.990023,-24.0346,0.990000,-24.0500
79,0.982012,-25.0113,0.982000,-24.9700
80,0.987242,-24.8172,0.987200,-24.9700
81,1.034127,-18.7567,1.034000,-18.8900
84,1.025000,-17.1478,1.025000,-17.1600
85,0.987112,-17.7651,0.987200,-17.6800
86,0.990818,-14.2479,0.990900,-14.1900
87,0.991954,-7.7927,0.992100,-7.7700
88,1.015248,-20.8668,1.015100,-20.9600
89,1.031724,-11.1429,1.031700,-11.1300
90,1.027231,-11.2349,1.027200,-11.2300
91,1.052000,-9.4370,1.052000,-9.4000
92,1.052000,-6.2439,1.052000,-6.2000
94,0.992945,-9.4493,0.993000,-9.4200
97,1.018224,-13.2871,1.018300,-13.2400
98,1.000000,-14.6649,1.000000,-14.6000
99,0.989358,-20.3753,0.989400,-20.2700
100,1.005986,-14.5033,1.006000,-14.4500
102,1.000708,-15.2926,1.000800,-15.2300
103,1.028759,-12.1181,1.028800,-12.0600
104,0.995737,-17.4016,0.995800,-17.3300
105,1.022267,-13.0017,1.022300,-12.9400
107,1.009461,-16.0818,1.009500,-16.0300
108,0.990000,-20.3635,0.990000,-20.2600
109,0.975245,-26.2916,0.974900,-26.0600
110,0.973213,-24.9316,0.973000,-24.7200
112,0.974473,-29.2739,0.972500,-28.6900
113,0.970155,-25.4471,0.970000,-25.3800
114,0.976812,-29.2092,0.974700,-28.5900
115,0.960282,-13.5485,0.960300,-13.5700
116,1.024861,-12.6669,1.024900,-12.6900
117,0.934829,-4.6992,0.934800,-4.7200
118,0.929853,-4.1016,0.929800,-4.1200
119,1.043500,5.1873,1.043500,5.1700
120,0.958437,-8.7492,0.958400,-8.7700
121,0.987111,-12.6148,0.987100,-12.6400
122,0.972796,-14.3431,0.972800,-14.3600
123,1.000588,-17.6134,1.000600,-17.6400
124,1.023300,-13.4645,1.023300,-13.4900
125,1.010300,-18.4065,1.010300,-18.4300
126,0.997795,-12.8427,0.997800,-12.8600
127,1.000129,-10.5018,1.000100,-10.5200
128,1.002406,-4.7559,1.002400,-4.7800
129,1.002825,-4.3771,1.002800,-4.4000
130,1.019136,5.5778,1.019100,5.5600
131,0.986142,6.0737,0.986100,6.0600
132,1.004551,3.0638,1.004500,3.0400
133,1.001998,-5.4390,1.002000,-5.4600
134,1.022076,-8.0222,1.022000,-8.0400
135,1.019337,-6.7339,1.019300,-6.7600
136,1.047586,1.5630,1.047600,1.5400
137,1.047088,-1.4315,1.047100,-1.4500
138,1.055000,-6.3308,1.055000,-6.3500
139,1.011709,-3.5447,1.011700,-3.5700
140,1.042991,-3.4121,1.043000,-3.4400
141,1.051000,0.0736,1.051000,0.0500
142,1.015510,-2.7419,1.015500,-2.7700
143,1.043500,4.0618,1.043500,4.0300
144,1.016107,-0.6609,1.016000,-0.7000
145,1.008106,-0.1299,1.008100,-0.1600
146,1.052800,4.3470,1.052800,4.3200
147,1.052800,8.3890,1.052800,8.3600
148,1.057719,0.3062,1.057700,0.2800
149,1.073500,5.2574,1.073500,5.2300
150,0.986926,6.3552,0.986900,6.3400
151,1.004833,4.1504,1.004800,4.1300
152,1.053500,9.2639,1.053500,9.2400
153,1.043500,10.4836,1.043500,10.4600
154,0.966417,-1.7757,0.966300,-1.8000
155,1.017724,6.7744,1.017700,6.7500
156,0.963000,5.1688,0.963000,5.1500
157,0.984473,-11.9050,0.984500,-11.9300
158,0.998709,-11.3807,0.998700,-11.4000
159,0.986644,-9.7983,0.986700,-9.8200
160,0.999801,-12.5302,0.999800,-12.5500
161,1.036082,8.8670,1.036000,8.8500
162,0.991820,18.5239,0.991800,18.5000
163,1.041011,2.9293,1.041000,2.9100
164,0.983914,9.6845,0.983900,9.6600
165,1.000211,26.3320,1.000200,26.3100
166,0.997254,30.2437,0.997300,30.2200
167,0.971492,-6.8853,0.971500,-6.9100
168,1.002431,-4.7789,1.002400,-4.8000
169,0.987864,-6.6565,0.987900,-6.6800
170,0.929000,0.1077,0.929000,0.0900
171,0.982900,-9.9139,0.982900,-9.9400
172,1.024466,-6.1996,1.024400,-6.2200
173,0.983654,-12.7288,0.983700,-12.7500
174,1.062214,-2.6667,1.062200,-2.6900
175,0.973081,-7.1803,0.973000,-7.2100
176,1.052200,4.6912,1.052200,4.6700
177,1.007700,0.6457,1.007700,0.6200
178,0.939796,-6.5368,0.939700,-6.5600
179,0.969910,-9.3376,0.969900,-9.3700
180,0.979330,-3.0651,0.979300,-3.0900
181,1.051824,-1.3032,1.051800,-1.3300
182,1.044628,-4.1651,1.044700,-4.1900
183,0.971645,7.1451,0.971700,7.1200
184,1.038589,-6.8245,1.038600,-6.8500
185,1.052200,-4.3101,1.052200,-4.3300
186,1.065000,2.1943,1.065000,2.1700
187,1.065000,1.4190,1.065000,1.4000
188,1.053282,-0.7012,1.053300,-0.7200
189,1.002757,-26.0133,0.997500,-25.8400
190,1.055100,-20.4166,1.055100,-20.6200
191,1.043500,12.4517,1.043500,12.2500
192,0.937458,-10.9776,0.937400,-11.1800
193,0.998236,-27.4703,0.989700,-26.0900
194,1.048984,-19.0448,1.048900,-19.2100
195,1.035903,-20.5808,1.035700,-20.7900
196,0.973993,-24.2286,0.969500,-25.3200
197,0.992473,-23.0617,0.990700,-23.7200
198,1.015000,-20.0943,1.015000,-20.5800
199,0.954313,-25.4462,0.952800,-26.0500
200,0.956174,-25.3671,0.955000,-25.9300
201,0.974032,-29.2331,0.969200,-27.4900
202,0.990839,-24.9694,0.990800,-25.3300
203,1.003359,-21.9255,1.003300,-22.3500
204,0.966709,-29.5487,0.971800,-25.7000
205,0.985554,-28.5158,0.983800,-26.0700
206,1.003768,-28.4732,0.999200,-27.4100
207,1.018555,-28.2951,1.013700,-27.4400
208,0.999440,-26.9980,0.992900,-26.2800
209,1.004774,-25.6141,0.999900,-25.6600
210,0.980462,-23.6028,0.978800,-24.2200
211,1.001820,-22.9715,1.001700,-23.3100
212,1.013262,-22.2030,1.013200,-22.5100
213,1.010000,-11.3792,1.010000,-11.6700
214,0.991863,-17.2380,0.991900,-17.5300
215,0.986632,-19.9510,0.986600,-20.2300
216,0.975110,-22.2714,0.975100,-22.5300
217,1.021525,-21.9868,1.021500,-22.2000
218,1.007547,-22.4218,1.007500,-22.6300
219,1.055420,-20.9474,1.055400,-21.1500
220,1.008000,-21.5198,1.008000,-21.7300
221,1.000000,-22.2851,1.000000,-22.4900
222,1.050000,-22.9639,1.050000,-23.1700
223,0.996551,-22.4955,0.996500,-22.7000
224,1.000254,-21.3497,1.000200,-21.5500
225,0.945276,-11.1416,0.945300,-11.3400
226,1.018005,-21.4055,1.018000,-21.6100
227,1.000000,-27.0161,1.000000,-27.2200
228,1.042356,-20.7369,1.042300,-20.9400
229,1.049552,-19.7414,1.049600,-19.9400
230,1.040000,-13.6199,1.040000,-13.8200
231,1.053541,-21.0203,1.053500,-21.2200
232,1.041466,-22.9943,1.041400,-23.1900
233,1.000000,-25.6959,1.000000,-25.9000
234,1.038706,-20.6906,1.038700,-20.8900
235,1.009515,-20.8231,1.009500,-21.0300
236,1.016500,-15.1952,1.016500,-15.4000
237,1.055850,-20.8975,1.055800,-21.1000
238,1.010000,-20.7353,1.010000,-20.9400
239,1.000000,-15.6565,1.000000,-15.8600
240,1.023776,-19.9339,1.023700,-20.1400
241,1.050000,-16.3037,1.050000,-16.5000
242,0.993000,-17.2263,0.993000,-17.5300
243,1.010000,-18.9492,1.010000,-19.2700
244,0.992178,-19.8879,0.992100,-20.2100
245,0.971140,-20.5773,0.971100,-20.9000
246,0.965191,-21.4161,0.965100,-21.7400
247,0.969095,-21.3304,0.968800,-21.6700
248,0.976999,-24.8098,0.976000,-25.2300
249,0.976227,-25.2333,0.975200,-25.6500
250,1.020532,-23.3790,1.019600,-23.8000
281,1.025125,-19.8611,1.025100,-20.0600
319,1.015209,1.4877,1.015200,1.4800
320,1.014590,-2.2214,1.014600,-2.2300
322,1.000433,-17.6905,1.000500,-17.6100
323,0.980890,-13.7482,0.981000,-13.6900
324,0.974945,-23.5218,0.975000,-23.4200
526,0.942873,-34.2770,0.942900,-34.3100
528,0.972387,-37.5425,0.972300,-37.5800
531,0.960470,-29.0644,0.960400,-29.1000
552,1.000921,-23.3304,1.000900,-23.3600
562,0.977728,-27.9442,0.977700,-28.0000
609,0.958325,-28.7596,0.958300,-28.7900
664,1.031028,-16.8328,1.030900,-17.0000
1190,1.012876,3.9248,1.012800,3.9000
1200,1.024438,-7.5031,1.024400,-7.5200
1201,1.012197,-15.1564,1.012200,-15.1800
2040,0.969485,-24.7010,0.965300,-14.9400
7001,1.050700,10.8092,1.050700,10.7900
7002,1.050700,12.5019,1.050700,12.4800
7003,1.032300,13.7745,1.032300,13.7600
7011,1.014500,5.0091,1.014500,4.9900
7012,1.050700,11.5891,1.050700,11.5700
7017,1.050700,-10.4509,1.050700,-10.4700
7023,1.050700,6.1616,1.050700,6.1500
7024,1.029000,12.6080,1.029000,12.6000
7039,1.050000,2.1462,1.050000,2.1100
7044,1.014500,-13.8809,1.014500,-13.9200
7049,1.050700,0.0000,1.050700,0.0000
7055,0.996700,-7.4756,0.996700,-7.5000
7057,1.021200,-3.4110,1.021200,-3.4400
7061,1.014500,2.0023,1.014500,1.9700
7062,1.001700,5.8305,1.001700,5.8000
7071,0.989300,-25.3153,0.989300,-25.3500
7130,1.050700,19.0438,1.050700,19.0200
7139,1.050700,2.7689,1.050700,2.7500
7166,1.014500,35.0724,1.014500,35.0500
9001,1.011774,-11.2347,1.011700,-11.2500
9002,0.994500,-18.8437,0.994500,-18.8600
9003,0.983335,-19.6731,0.983300,-19.6800
9004,0.976825,-19.8103,0.976800,-19.8200
9005,1.011711,-11.3081,1.011700,-11.3200
9006,1.002924,-17.4122,1.002900,-17.4200
9007,0.991387,-18.6732,0.991300,-18.6900
9012,1.002280,-17.2529,1.002300,-17.2700
9021,0.988722,-19.0644,0.988700,-19.0900
9022,0.964884,-21.6368,0.964800,-21.6700
9023,0.974704,-19.3735,0.974700,-19.4100
9024,0.970504,-21.4097,0.970600,-21.4300
9025,0.964756,-20.4347,0.964900,-20.4800
9026,0.965606,-20.3455,0.965700,-20.3900
9031,0.931742,-25.0161,0.931800,-25.0300
9032,0.944074,-23.8272,0.944100,-23.8400
9033,0.928799,-25.3314,0.928600,-25.3300
9034,0.997240,-21.0868,0.997300,-21.1000
9035,0.950422,-23.1722,0.950600,-23.1900
9036,0.959699,-22.6583,0.959800,-22.6700
9037,0.957027,-22.5794,0.957000,-22.5800
9038,0.939160,-24.4110,0.939100,-24.4100
9041,0.963555,-21.3118,0.963600,-21.3300
9042,0.950267,-22.4764,0.950100,-22.5000
9043,0.964683,-21.4142,0.964600,-21.4200
9044,0.979007,-19.7702,0.979000,-19.7800
9051,1.000000,-19.3814,1.000000,-19.4000
9052,0.978627,-17.2329,0.978600,-17.2500
9053,1.000000,-17.6684,1.000000,-17.6800
9054,1.000000,-6.8122,1.000000,-6.8300
9055,1.000000,-7.5232,1.000000,-7.5400
9071,0.975431,-20.4586,0.975200,-20.4800
9072,0.980460,-19.9048,0.980300,-19.9200
9121,0.979888,-19.2771,0.979900,-19.3000
9533,1.040517,-18.1823,1.040200,-18.2400
